*SOILS: PraxSoft XML Project: Soil types for FL

*FL07538004  NRCS_UF    -99      203   Levyville Hapl Coarse-Loamy Variant Fine Sand
@SITE        COUNTRY          LAT     LONG SCS FAMILY
 Levy        USA           29.490  -82.794 Generic
@ SCOM  SALB  SLU1  SLDR  SLRO  SLNF  SLPF  SMHB  SMPX  SMKE
   -99  0.13   -99  3.00    64  1.00  1.00   -99   -99   -99
@  SLB  SLMH  SLLL  SDUL  SSAT  SRGF  SSKS  SBDM  SLOC  SLCL  SLSI  SLCF  SLNI  SLHW  SLHB  SCEC  SADC
    18   -99 0.044 0.157  0.37  1.00  12.5  1.59  0.51   1.8   4.7   -99  0.03   5.1   -99   3.6   -99
    43   -99 0.050 0.168  0.35  0.54  15.8  1.64  0.11   2.0   5.0   -99  0.03   5.0   -99   2.5   -99
    79   -99 0.097 0.229  0.35  0.30   5.3  1.65  0.14  15.8   6.2   -99  0.03   4.0   -99  14.2   -99
   112   -99 0.093 0.233  0.35  0.15   3.1  1.65  0.04  13.0   4.2   -99  0.03   4.4   -99  10.0   -99
   203   -99 0.084 0.209  0.39  0.04   8.3  1.53  0.06   6.9   3.3   -99  0.03   4.8   -99   6.6   -99

*FL07538005  NRCS_UF    -99      203   OTELA FINE SAND
@SITE        COUNTRY          LAT     LONG SCS FAMILY
 Levy        USA           29.505  -82.833 Generic
@ SCOM  SALB  SLU1  SLDR  SLRO  SLNF  SLPF  SMHB  SMPX  SMKE
   -99  0.13   -99  4.00    61  1.00  1.00   -99   -99   -99
@  SLB  SLMH  SLLL  SDUL  SSAT  SRGF  SSKS  SBDM  SLOC  SLCL  SLSI  SLCF  SLNI  SLHW  SLHB  SCEC  SADC
    20   -99 0.044 0.157  0.32  1.00   7.5  1.72  0.50   2.1   4.1   -99  0.03   5.1   -99   4.7   -99
    53   -99 0.031 0.121  0.35  0.48  13.2  1.65  0.11   1.6   3.5   -99  0.03   5.2   -99   2.1   -99
    81   -99 0.019 0.089  0.37  0.26  20.4  1.58  0.07   1.5   3.3   -99  0.03   5.3   -99   1.6   -99
   127   -99 0.027 0.098  0.36  0.12  16.4  1.60  0.04   1.0   3.0   -99  0.03   5.0   -99   0.8   -99
   155   -99 0.099 0.227  0.33  0.06   0.4  1.71  0.05  17.9   3.9   -99  0.03   4.4   -99   6.7   -99
   173   -99 0.110 0.234  0.33  0.04   0.8  1.69  0.06  20.7   3.3   -99  0.03   4.5   -99   7.6   -99
   203   -99 0.116 0.233  0.32  0.02   0.2  1.73  0.04  24.1   2.9   -99  0.03   4.3   -99   8.1   -99

*FL07538006  NRCS_UF    -99      89   JONESVILLE FINE SAND
@SITE        COUNTRY          LAT     LONG SCS FAMILY
 Levy        USA           29.511  -82.919 Generic
@ SCOM  SALB  SLU1  SLDR  SLRO  SLNF  SLPF  SMHB  SMPX  SMKE
   -99  0.13   -99  3.00    61  1.00  1.00   -99   -99   -99
@  SLB  SLMH  SLLL  SDUL  SSAT  SRGF  SSKS  SBDM  SLOC  SLCL  SLSI  SLCF  SLNI  SLHW  SLHB  SCEC  SADC
    13   -99 0.036 0.129  0.46  1.00  27.0  1.33  0.47   1.0   1.8   -99  0.03   6.2   -99   4.5   -99
    36   -99 0.036 0.129  0.39  0.61  16.9  1.54  0.15   0.6   2.1   -99  0.03   6.4   -99   1.6   -99
    68   -99 0.036 0.129  0.36  0.35  21.7  1.60  0.11   0.6   2.1   -99  0.03   6.3   -99   0.9   -99
    89   -99 0.206 0.310  0.40  0.21   1.3  1.49  0.42  29.6   4.2   -99  0.03   7.5   -99  17.0   -99

*FL07538009  NRCS_UF    -99      203   TAVARES COATED VARIANT FINE SAND
@SITE        COUNTRY          LAT     LONG SCS FAMILY
 Levy        USA           29.389  -82.619 Generic
@ SCOM  SALB  SLU1  SLDR  SLRO  SLNF  SLPF  SMHB  SMPX  SMKE
   -99  0.13   -99  4.00    64  1.00  1.00   -99   -99   -99
@  SLB  SLMH  SLLL  SDUL  SSAT  SRGF  SSKS  SBDM  SLOC  SLCL  SLSI  SLCF  SLNI  SLHW  SLHB  SCEC  SADC
    18   -99 0.037 0.114  0.40  1.00  26.3  1.50  0.86   3.2   1.4   -99  0.03   6.0   -99   5.9   -99
    61   -99 0.022 0.095  0.41  0.45  35.5  1.48  0.34   2.9   2.3   -99  0.03   5.9   -99   2.0   -99
   104   -99 0.024 0.074  0.41  0.19  42.8  1.46  0.17   3.1   1.8   -99  0.03   5.5   -99   2.7   -99
   147   -99 0.037 0.114  0.38  0.08  32.9  1.55  0.09   3.3   1.2   -99  0.03   5.3   -99   1.5   -99
   203   -99 0.031 0.123  0.37  0.03  34.2  1.58  0.06   2.8   1.0   -99  0.03   5.3   -99   1.5   -99

*FL07538010  NRCS_UF    -99      203   CANDLER FINE SAND
@SITE        COUNTRY          LAT     LONG SCS FAMILY
 Levy        USA           29.385  -82.613 Generic
@ SCOM  SALB  SLU1  SLDR  SLRO  SLNF  SLPF  SMHB  SMPX  SMKE
   -99  0.13   -99  1.00    64  1.00  1.00   -99   -99   -99
@  SLB  SLMH  SLLL  SDUL  SSAT  SRGF  SSKS  SBDM  SLOC  SLCL  SLSI  SLCF  SLNI  SLHW  SLHB  SCEC  SADC
    20   -99 0.027 0.111  0.37  1.00  21.7  1.59  0.67   1.8   0.9   -99  0.03   5.6   -99   4.4   -99
    48   -99 0.030 0.120  0.39  0.51  39.5  1.52  0.19   1.4   1.2   -99  0.03   5.7   -99   1.7   -99
    94   -99 0.031 0.122  0.40  0.24  35.5  1.51  0.07   1.4   0.8   -99  0.03   5.8   -99   1.0   -99
   132   -99 0.031 0.120  0.36  0.10  30.3  1.61  0.05   0.9   1.5   -99  0.03   5.9   -99   0.8   -99
   203   -99 0.031 0.120  0.38  0.04  29.0  1.55  0.04   0.9   1.4   -99  0.03   6.0   -99   0.8   -99

*FL07538011  NRCS_UF    -99      203   ASTATULA FINE SAND
@SITE        COUNTRY          LAT     LONG SCS FAMILY
 Levy        USA           29.432  -82.577 Generic
@ SCOM  SALB  SLU1  SLDR  SLRO  SLNF  SLPF  SMHB  SMPX  SMKE
   -99  0.13   -99  1.00    64  1.00  1.00   -99   -99   -99
@  SLB  SLMH  SLLL  SDUL  SSAT  SRGF  SSKS  SBDM  SLOC  SLCL  SLSI  SLCF  SLNI  SLHW  SLHB  SCEC  SADC
    13   -99 0.031 0.122  0.43  1.00  57.9  1.40  0.55   1.4   0.9   -99  0.03   5.5   -99   2.7   -99
    64   -99 0.030 0.120  0.40  0.46  51.3  1.49  0.17   1.5   1.1   -99  0.03   5.2   -99   1.6   -99
   175   -99 0.031 0.122  0.38  0.09  53.9  1.55  0.09   1.6   0.6   -99  0.03   5.0   -99   0.8   -99
   203   -99 0.031 0.122  0.37  0.02  50.0  1.57  0.04   1.7   0.6   -99  0.03   5.0   -99   0.9   -99

*FL07538012  NRCS_UF    -99      203   SPARR FINE SAND
@SITE        COUNTRY          LAT     LONG SCS FAMILY
 Levy        USA           29.424  -82.644 Generic
@ SCOM  SALB  SLU1  SLDR  SLRO  SLNF  SLPF  SMHB  SMPX  SMKE
   -99  0.13   -99  5.00    61  1.00  1.00   -99   -99   -99
@  SLB  SLMH  SLLL  SDUL  SSAT  SRGF  SSKS  SBDM  SLOC  SLCL  SLSI  SLCF  SLNI  SLHW  SLHB  SCEC  SADC
    15   -99 0.025 0.073  0.42  1.00  22.4  1.45  1.52   2.6   1.8   -99  0.03   5.2   -99   8.7   -99
    46   -99 0.032 0.105  0.39  0.54  17.8  1.54  0.45   1.8   2.5   -99  0.03   5.7   -99   3.3   -99
    76   -99 0.034 0.109  0.39  0.30  20.4  1.53  0.25   1.7   2.2   -99  0.03   5.8   -99   2.3   -99
   137   -99 0.034 0.127  0.38  0.12  15.8  1.56  0.07   1.1   1.6   -99  0.03   5.7   -99   1.2   -99
   203   -99 0.106 0.228  0.32  0.03   0.2  1.72  0.13  20.6   2.3   -99  0.03   5.7   -99   7.1   -99

*FL07538018  NRCS_UF    -99      203   WAUCHULA FINE SAND
@SITE        COUNTRY          LAT     LONG SCS FAMILY
 Levy        USA           29.463  -82.718 Generic
@ SCOM  SALB  SLU1  SLDR  SLRO  SLNF  SLPF  SMHB  SMPX  SMKE
   -99  0.13   -99  6.00     0  1.00  1.00   -99   -99   -99
@  SLB  SLMH  SLLL  SDUL  SSAT  SRGF  SSKS  SBDM  SLOC  SLCL  SLSI  SLCF  SLNI  SLHW  SLHB  SCEC  SADC
    10   -99 0.024 0.093  0.48  1.00  36.9  1.26  1.22   0.6   3.7   -99  0.03   3.8   -99   6.8   -99
    46   -99 0.036 0.123  0.36  0.57   7.6  1.61  0.11   0.3   3.0   -99  0.03   4.8   -99   1.1   -99
    53   -99 0.050 0.170  0.36  0.37   3.0  1.60  0.43   2.0   5.1   -99  0.03   4.5   -99   4.4   -99
    69   -99 0.050 0.162  0.37  0.30   9.4  1.57  0.76   4.5   2.1   -99  0.03   4.5   -99  10.8   -99
    79   -99 0.049 0.163  0.36  0.23   9.4  1.62  0.39   4.4   2.5   -99  0.03   5.5   -99   6.5   -99
    81   -99 0.049 0.163  0.36  0.20   9.4  1.62  0.39   4.4   2.5   -99  0.03   5.5   -99   6.5   -99
   119   -99 0.128 0.244  0.43  0.14   1.1  1.40  0.40  24.1   3.8   -99  0.03   4.7   -99  18.7   -99
   155   -99 0.107 0.229  0.40  0.06   1.0  1.50  0.22  22.9   2.1   -99  0.03   4.4   -99  19.0   -99
   203   -99 0.058 0.163  0.30  0.03   0.4  1.78  0.15   9.5   1.1   -99  0.03   4.9   -99   9.6   -99

*FL07538020  NRCS_UF    -99      203   MILLHOPPER FINE SAND
@SITE        COUNTRY          LAT     LONG SCS FAMILY
 Levy        USA           29.329  -82.601 Generic
@ SCOM  SALB  SLU1  SLDR  SLRO  SLNF  SLPF  SMHB  SMPX  SMKE
   -99  0.13   -99  4.00    61  1.00  1.00   -99   -99   -99
@  SLB  SLMH  SLLL  SDUL  SSAT  SRGF  SSKS  SBDM  SLOC  SLCL  SLSI  SLCF  SLNI  SLHW  SLHB  SCEC  SADC
    10   -99 0.028 0.100  0.47  1.00  21.7  1.31  1.17   0.1   3.7   -99  0.03   4.4   -99   6.9   -99
    20   -99 0.061 0.168  0.46  1.00  49.4  1.33  0.92   5.6   0.1   -99  0.03   5.0   -99   7.4   -99
    45   -99 0.031 0.123  0.43  0.52  40.8  1.41  0.53   2.8   1.1   -99  0.03   5.1   -99   3.8   -99
   101   -99 0.040 0.148  0.40  0.23  43.4  1.50  0.24   2.6   0.8   -99  0.03   5.2   -99   2.2   -99
   137   -99 0.042 0.148  0.38  0.09  35.8  1.55  0.22   2.9   0.1   -99  0.03   5.5   -99   1.3   -99
   158   -99 0.084 0.209  0.39  0.05  16.5  1.53  0.26   8.9   0.6   -99  0.03   5.1   -99   2.9   -99
   203   -99 0.105 0.230  0.35  0.03   0.7  1.63  0.22  20.8   1.4   -99  0.03   5.0   -99   5.7   -99

*FL07538022  NRCS_UF    -99      203   HICORIA FINE SAND
@SITE        COUNTRY          LAT     LONG SCS FAMILY
 Levy        USA           29.459  -82.434 Generic
@ SCOM  SALB  SLU1  SLDR  SLRO  SLNF  SLPF  SMHB  SMPX  SMKE
   -99  0.13   -99  6.00    61  1.00  1.00   -99   -99   -99
@  SLB  SLMH  SLLL  SDUL  SSAT  SRGF  SSKS  SBDM  SLOC  SLCL  SLSI  SLCF  SLNI  SLHW  SLHB  SCEC  SADC
    28   -99 0.051 0.160  0.41  1.00  30.4  1.48  1.65   3.6   4.2   -99  0.03   5.1   -99   4.9   -99
    43   -99 0.049 0.149  0.37  0.49   5.7  1.59  0.64   4.1   3.4   -99  0.03   5.1   -99   1.2   -99
    58   -99 0.092 0.232  0.37  0.36   7.9  1.58  0.33   5.4   7.5   -99  0.03   4.7   -99   2.2   -99
    76   -99 0.194 0.301  0.37  0.26   0.6  1.59  0.39  26.2   5.2   -99  0.03   4.5   -99  10.4   -99
   104   -99 0.116 0.233  0.42  0.17   0.4  1.44  0.16  21.2   5.6   -99  0.03   3.7   -99   8.0   -99
   147   -99 0.128 0.244  0.28  0.08   0.7  1.85  0.06  22.6   5.8   -99  0.03   4.6   -99   9.8   -99
   155   -99 0.103 0.248  0.31  0.05   0.7  1.75  0.06  12.6   2.3   -99  0.03   4.5   -99   8.2   -99
   203   -99 0.133 0.250  0.32  0.03   0.2  1.73  0.13  24.0   5.4   -99  0.03   4.2   -99  17.5   -99

*FL07538024  NRCS_UF    -99      135   MABEL FINE SAND
@SITE        COUNTRY          LAT     LONG SCS FAMILY
 Levy        USA           29.333  -82.419 Generic
@ SCOM  SALB  SLU1  SLDR  SLRO  SLNF  SLPF  SMHB  SMPX  SMKE
   -99  0.13   -99  5.00    61  1.00  1.00   -99   -99   -99
@  SLB  SLMH  SLLL  SDUL  SSAT  SRGF  SSKS  SBDM  SLOC  SLCL  SLSI  SLCF  SLNI  SLHW  SLHB  SCEC  SADC
    18   -99 0.054 0.174  0.47  1.00  21.3  1.31  1.14   3.1   4.3   -99  0.03   5.0   -99   6.9   -99
    36   -99 0.060 0.169  0.38  0.58  20.4  1.55  0.35   4.0   5.5   -99  0.03   5.0   -99  11.7   -99
    46   -99 0.172 0.295  0.39  0.44   0.7  1.52  0.41  37.1   7.5   -99  0.03   4.6   -99  24.2   -99
    79   -99 0.161 0.279  0.43  0.29   1.0  1.42  0.24  49.0   6.8   -99  0.03   4.5   -99  26.3   -99
   104   -99 0.214 0.339  0.45  0.16   3.0  1.34  0.43  54.8   7.9   -99  0.03   4.8   -99  32.4   -99
   135   -99 0.177 0.337  0.54  0.09   4.4  1.10  0.53  75.5   9.6   -99  0.03   4.9   -99  48.8   -99

*FL07538025  NRCS_UF    -99      38   PEDRO FINE SAND
@SITE        COUNTRY          LAT     LONG SCS FAMILY
 Levy        USA           29.346  -82.455 Generic
@ SCOM  SALB  SLU1  SLDR  SLRO  SLNF  SLPF  SMHB  SMPX  SMKE
   -99  0.13   -99  5.00    61  1.00  1.00   -99   -99   -99
@  SLB  SLMH  SLLL  SDUL  SSAT  SRGF  SSKS  SBDM  SLOC  SLCL  SLSI  SLCF  SLNI  SLHW  SLHB  SCEC  SADC
    20   -99 0.049 0.164  0.39  1.00  18.5  1.53  0.49   4.0   2.6   -99  0.03   5.8   -99   4.0   -99
    28   -99 0.056 0.157  0.34  0.62  10.6  1.66  0.22   3.8   4.6   -99  0.03   5.9   -99   2.8   -99
    38   -99 0.102 0.247  0.39  0.52  13.2  1.53  0.37  13.6   5.6   -99  0.03   6.0   -99   7.0   -99

*FL07538026  NRCS_UF    -99      203   LUTTERLOH FINE SAND
@SITE        COUNTRY          LAT     LONG SCS FAMILY
 Levy        USA           29.323  -82.467 Generic
@ SCOM  SALB  SLU1  SLDR  SLRO  SLNF  SLPF  SMHB  SMPX  SMKE
   -99  0.13   -99  5.00    61  1.00  1.00   -99   -99   -99
@  SLB  SLMH  SLLL  SDUL  SSAT  SRGF  SSKS  SBDM  SLOC  SLCL  SLSI  SLCF  SLNI  SLHW  SLHB  SCEC  SADC
    18   -99 0.038 0.137  0.39  1.00  14.5  1.52  0.99   2.1   3.9   -99  0.03   4.7   -99   5.4   -99
    58   -99 0.019 0.089  0.37  0.47  25.9  1.57  0.26   1.3   4.0   -99  0.03   5.0   -99   2.0   -99
   107   -99 0.020 0.089  0.37  0.19  23.1  1.58  0.07   1.2   3.3   -99  0.03   5.1   -99   0.6   -99
   145   -99 0.029 0.101  0.35  0.08  15.1  1.65  0.06   1.0   2.9   -99  0.03   5.6   -99   0.4   -99
   175   -99 0.116 0.233  0.32  0.04   0.2  1.74  0.08  22.0   4.6   -99  0.03   4.9   -99   8.4   -99
   203   -99 0.224 0.306  0.36  0.02   0.2  1.62  0.46  45.7   6.3   -99  0.03   4.5   -99  20.8   -99

*FL07538027  NRCS_UF    -99      172   MORIAH FINE SAND
@SITE        COUNTRY          LAT     LONG SCS FAMILY
 Levy        USA           29.359  -82.442 Generic
@ SCOM  SALB  SLU1  SLDR  SLRO  SLNF  SLPF  SMHB  SMPX  SMKE
   -99  0.13   -99  5.00    61  1.00  1.00   -99   -99   -99
@  SLB  SLMH  SLLL  SDUL  SSAT  SRGF  SSKS  SBDM  SLOC  SLCL  SLSI  SLCF  SLNI  SLHW  SLHB  SCEC  SADC
    23   -99 0.031 0.113  0.40  1.00  25.6  1.51  0.71   2.9   1.0   -99  0.03   5.1   -99   2.1   -99
    41   -99 0.024 0.093  0.36  0.53  24.1  1.60  0.19   0.7   3.6   -99  0.03   5.2   -99   1.0   -99
    71   -99 0.025 0.096  0.37  0.33  22.4  1.57  0.08   0.3   3.7   -99  0.03   4.8   -99   0.9   -99
    81   -99 0.106 0.230  0.33  0.22   0.9  1.70  0.20  18.4   5.2   -99  0.03   5.0   -99   8.4   -99
   112   -99 0.116 0.233  0.31  0.15   0.2  1.76  0.13  21.5   5.3   -99  0.03   4.8   -99  10.2   -99
   132   -99 0.100 0.229  0.28  0.09   0.3  1.84  0.06  16.4   5.7   -99  0.03   4.9   -99   7.7   -99
   172   -99 0.217 0.341  0.43  0.05   0.2  1.42  0.22  56.6  10.4   -99  0.03   6.6   -99  36.5   -99

*FL07538028  NRCS_UF    -99      58   MATMON FINE SAND
@SITE        COUNTRY          LAT     LONG SCS FAMILY
 Levy        USA           29.251  -82.721 Generic
@ SCOM  SALB  SLU1  SLDR  SLRO  SLNF  SLPF  SMHB  SMPX  SMKE
   -99  0.13   -99  5.00    61  1.00  1.00   -99   -99   -99
@  SLB  SLMH  SLLL  SDUL  SSAT  SRGF  SSKS  SBDM  SLOC  SLCL  SLSI  SLCF  SLNI  SLHW  SLHB  SCEC  SADC
     8   -99 0.062 0.170  0.53  1.00  16.7  1.13  2.65   4.5   5.2   -99  0.03   5.5   -99  14.7   -99
    15   -99 0.080 0.211  0.42  1.00  11.6  1.43  0.53   3.9   7.2   -99  0.03   5.8   -99   5.8   -99
    38   -99 0.172 0.296  0.48  0.59   0.3  1.28  1.02  35.4  11.8   -99  0.03   7.5   -99  48.6   -99
    58   -99 0.077 0.189  0.47  0.38   1.9  1.29  0.52   8.0  43.2   -99  0.03   8.0   -99  31.8   -99

*FL01307001  NRCS_UF    -99      203   Dothan loamy sand
@SITE        COUNTRY          LAT     LONG SCS FAMILY
 Calhoun     USA           30.075  -85.012 Generic
@ SCOM  SALB  SLU1  SLDR  SLRO  SLNF  SLPF  SMHB  SMPX  SMKE
   -99  0.13   -99  3.00    61  1.00  1.00   -99   -99   -99
@  SLB  SLMH  SLLL  SDUL  SSAT  SRGF  SSKS  SBDM  SLOC  SLCL  SLSI  SLCF  SLNI  SLHW  SLHB  SCEC  SADC
    25   -99 0.088 0.227  0.40  1.00  26.0  1.49  0.73   4.6  10.9   -99  0.03   6.1   -99   7.3   -99
    79   -99 0.073 0.204  0.34  0.35   8.6  1.67  0.15  11.9  11.5   -99  0.03   5.2   -99   4.1   -99
   150   -99 0.200 0.308  0.32  0.10   0.7  1.72  0.08  22.9  10.9   -99  0.03   4.8   -99   5.7   -99
   203   -99 0.208 0.307  0.31  0.03   0.5  1.75  0.04  27.5   7.9   -99  0.03   4.4   -99   6.9   -99

*FL01307007  NRCS_UF    -99      203   Hurricane sand
@SITE        COUNTRY          LAT     LONG SCS FAMILY
 Calhoun     USA           30.436  -85.256 Generic
@ SCOM  SALB  SLU1  SLDR  SLRO  SLNF  SLPF  SMHB  SMPX  SMKE
   -99  0.13   -99  5.00    61  1.00  1.00   -99   -99   -99
@  SLB  SLMH  SLLL  SDUL  SSAT  SRGF  SSKS  SBDM  SLOC  SLCL  SLSI  SLCF  SLNI  SLHW  SLHB  SCEC  SADC
    15   -99 0.041 0.146  0.42  1.00  65.1  1.45  0.70   1.4   5.2   -99  0.03   4.6   -99   4.5   -99
    58   -99 0.038 0.137  0.40  0.48  77.6  1.49  0.49   1.0   5.6   -99  0.03   4.9   -99   3.4   -99
    94   -99 0.040 0.145  0.40  0.22  60.5  1.50  0.26   1.6   4.8   -99  0.03   4.6   -99   2.1   -99
   122   -99 0.020 0.089  0.39  0.12  65.8  1.53  0.06   0.6   3.9   -99  0.03   4.8   -99   0.8   -99
   183   -99 0.037 0.131  0.37  0.05  55.9  1.59  0.04   0.3   2.6   -99  0.03   4.9   -99   0.8   -99
   203   -99 0.033 0.112  0.41  0.02 122.1  1.48  0.34   1.4   2.2   -99  0.03   4.5   -99   2.5   -99

*FL13007008  NRCS_UF    -99      203   Centenary sand
@SITE        COUNTRY          LAT     LONG SCS FAMILY
 Calhoun     USA           30.444  -85.252 Generic
@ SCOM  SALB  SLU1  SLDR  SLRO  SLNF  SLPF  SMHB  SMPX  SMKE
   -99  0.13   -99  4.00    61  1.00  1.00   -99   -99   -99
@  SLB  SLMH  SLLL  SDUL  SSAT  SRGF  SSKS  SBDM  SLOC  SLCL  SLSI  SLCF  SLNI  SLHW  SLHB  SCEC  SADC
    18   -99 0.054 0.174  0.40  1.00  72.0  1.49  0.66   2.5   5.0   -99  0.03   4.6   -99   4.0   -99
    76   -99 0.052 0.172  0.41  0.39 116.3  1.47  0.14   2.2   5.1   -99  0.03   4.6   -99   2.0   -99
   132   -99 0.050 0.168  0.39  0.12 134.0  1.52  0.08   1.9   5.1   -99  0.03   4.9   -99   1.0   -99
   150   -99 0.019 0.089  0.41  0.06 227.5  1.46  0.06   1.3   3.4   -99  0.03   4.9   -99   1.1   -99
   168   -99 0.019 0.089  0.41  0.04 167.0  1.48  0.02   1.0   3.8   -99  0.03   5.0   -99   0.9   -99
   203   -99 0.049 0.164  0.43  0.02 284.0  1.41  0.22   3.8   2.6   -99  0.03   5.0   -99   3.7   -99

*FL01307011  NRCS_UF    -99      203   Chipley sand
@SITE        COUNTRY          LAT     LONG SCS FAMILY
 Calhoun     USA           30.422  -85.307 Generic
@ SCOM  SALB  SLU1  SLDR  SLRO  SLNF  SLPF  SMHB  SMPX  SMKE
   -99  0.13   -99  5.00    61  1.00  1.00   -99   -99   -99
@  SLB  SLMH  SLLL  SDUL  SSAT  SRGF  SSKS  SBDM  SLOC  SLCL  SLSI  SLCF  SLNI  SLHW  SLHB  SCEC  SADC
    18   -99 0.024 0.093  0.47  1.00 171.5  1.31  0.77   1.0   3.3   -99  0.03   4.4   -99   4.6   -99
    53   -99 0.019 0.089  0.40  0.49 101.5  1.49  0.70   0.8   4.6   -99  0.03   4.7   -99   2.8   -99
    84   -99 0.019 0.089  0.43  0.25 101.0  1.41  0.24   1.0   4.1   -99  0.03   4.8   -99   1.4   -99
   119   -99 0.024 0.093  0.40  0.13  91.0  1.50  0.07   0.8   3.4   -99  0.03   4.8   -99   0.5   -99
   145   -99 0.030 0.120  0.38  0.07  81.5  1.56  0.07   1.4   4.5   -99  0.03   4.7   -99   0.8   -99
   203   -99 0.036 0.129  0.38  0.03  52.6  1.56  0.04   0.3   2.4   -99  0.03   4.8   -99   0.3   -99

*FL01307013  NRCS_UF    -99      203   Troup Sand
@SITE        COUNTRY          LAT     LONG SCS FAMILY
 Calhoun     USA           30.375  -85.094 Generic
@ SCOM  SALB  SLU1  SLDR  SLRO  SLNF  SLPF  SMHB  SMPX  SMKE
   -99  0.13   -99  3.00    61  1.00  1.00   -99   -99   -99
@  SLB  SLMH  SLLL  SDUL  SSAT  SRGF  SSKS  SBDM  SLOC  SLCL  SLSI  SLCF  SLNI  SLHW  SLHB  SCEC  SADC
    15   -99 0.067 0.185  0.45  1.00  58.6  1.34  1.00   2.8   7.2   -99  0.03   5.4   -99   4.6   -99
    28   -99 0.080 0.212  0.37  0.65  35.1  1.59  0.37   2.3   9.1   -99  0.03   5.7   -99   2.8   -99
    64   -99 0.090 0.227  0.36  0.40  34.4  1.61  0.20   3.6   9.5   -99  0.03   5.3   -99   1.6   -99
   117   -99 0.077 0.205  0.39  0.16  27.9  1.54  0.14   3.0   8.0   -99  0.03   5.2   -99   1.1   -99
   160   -99 0.104 0.224  0.35  0.06   4.1  1.65  0.11  18.9   8.1   -99  0.03   5.0   -99   4.7   -99
   203   -99 0.192 0.298  0.37  0.03   8.3  1.58  0.11  25.4   5.6   -99  0.03   4.6   -99   4.9   -99

*FL01307014  NRCS_UF    -99      203   Albany loamy sand
@SITE        COUNTRY          LAT     LONG SCS FAMILY
 Calhoun     USA           30.378  -85.090 Generic
@ SCOM  SALB  SLU1  SLDR  SLRO  SLNF  SLPF  SMHB  SMPX  SMKE
   -99  0.13   -99  5.00    61  1.00  1.00   -99   -99   -99
@  SLB  SLMH  SLLL  SDUL  SSAT  SRGF  SSKS  SBDM  SLOC  SLCL  SLSI  SLCF  SLNI  SLHW  SLHB  SCEC  SADC
    20   -99 0.093 0.235  0.36  1.00  12.7  1.61  0.83   2.2  11.3   -99  0.03   4.9   -99   3.9   -99
    36   -99 0.086 0.223  0.35  0.57  23.4  1.63  0.24   1.7  12.7   -99  0.03   5.5   -99   1.5   -99
    74   -99 0.093 0.235  0.37  0.33  34.9  1.59  0.08   1.5  12.0   -99  0.03   5.5   -99   1.1   -99
   117   -99 0.090 0.227  0.37  0.15  29.0  1.58  0.06   2.5  12.1   -99  0.03   5.2   -99   1.2   -99
   155   -99 0.054 0.189  0.28  0.07   3.9  1.83  0.20   6.2  13.4   -99  0.03   4.9   -99   1.1   -99
   203   -99 0.209 0.307  0.35  0.03   3.4  1.64  0.06  29.2   6.6   -99  0.03   4.7   -99   7.8   -99

*FL01307015  NRCS_UF    -99      203   Pottsburg sand
@SITE        COUNTRY          LAT     LONG SCS FAMILY
 Calhoun     USA           30.419  -85.263 Generic
@ SCOM  SALB  SLU1  SLDR  SLRO  SLNF  SLPF  SMHB  SMPX  SMKE
   -99  0.13   -99  6.00    61  1.00  1.00   -99   -99   -99
@  SLB  SLMH  SLLL  SDUL  SSAT  SRGF  SSKS  SBDM  SLOC  SLCL  SLSI  SLCF  SLNI  SLHW  SLHB  SCEC  SADC
    18   -99 0.019 0.089  0.40  1.00  69.1  1.50  0.72   1.0   3.7   -99  0.03   3.9   -99   2.9   -99
    36   -99 0.045 0.155  0.37  0.58  56.6  1.57  0.36   0.5   6.6   -99  0.03   4.2   -99   2.6   -99
    56   -99 0.033 0.122  0.36  0.40  35.5  1.61  0.14   0.8   5.8   -99  0.03   4.6   -99   1.2   -99
   132   -99 0.019 0.089  0.36  0.15  77.7  1.60  0.05   0.5   4.3   -99  0.03   5.3   -99   0.4   -99
   147   -99 0.075 0.217  0.26  0.06   0.4  1.90  0.06   1.7  14.7   -99  0.03   5.1   -99   0.8   -99
   203   -99 0.027 0.119  0.39  0.03  28.9  1.52  1.23   2.5   2.4   -99  0.03   4.7   -99   2.6   -99

*FL01307016  NRCS_UF    -99      203   Leefield loamy sand
@SITE        COUNTRY          LAT     LONG SCS FAMILY
 Calhoun     USA           30.536  -85.102 Generic
@ SCOM  SALB  SLU1  SLDR  SLRO  SLNF  SLPF  SMHB  SMPX  SMKE
   -99  0.13   -99  5.00    61  1.00  1.00   -99   -99   -99
@  SLB  SLMH  SLLL  SDUL  SSAT  SRGF  SSKS  SBDM  SLOC  SLCL  SLSI  SLCF  SLNI  SLHW  SLHB  SCEC  SADC
    13   -99 0.076 0.214  0.43  1.00  33.9  1.41  1.58   6.5  10.1   -99  0.03   4.2   -99  11.0   -99
    28   -99 0.062 0.211  0.40  0.66  32.9  1.51  0.58   3.8  14.6   -99  0.03   4.5   -99   4.7   -99
    43   -99 0.061 0.198  0.34  0.49  10.8  1.66  0.15   5.4  11.8   -99  0.03   4.6   -99   2.5   -99
    74   -99 0.061 0.198  0.31  0.31   9.5  1.75  0.04   5.0  12.4   -99  0.03   5.1   -99   1.8   -99
   114   -99 0.073 0.204  0.28  0.15   1.5  1.84  0.06  11.5  11.9   -99  0.03   5.3   -99   2.8   -99
   152   -99 0.113 0.239  0.29  0.07   0.5  1.81  0.05  16.4   9.8   -99  0.03   5.3   -99   3.3   -99
   203   -99 0.119 0.247  0.34  0.03   1.3  1.67  0.06  18.6  10.0   -99  0.03   5.3   -99   3.7   -99

*FL03719006  NRCS_UF    -99      203   LEON SAND
@SITE        COUNTRY          LAT     LONG SCS FAMILY
 Franklin    USA           29.954  -84.487 Generic
@ SCOM  SALB  SLU1  SLDR  SLRO  SLNF  SLPF  SMHB  SMPX  SMKE
   -99  0.13   -99  6.00    71  1.00  1.00   -99   -99   -99
@  SLB  SLMH  SLLL  SDUL  SSAT  SRGF  SSKS  SBDM  SLOC  SLCL  SLSI  SLCF  SLNI  SLHW  SLHB  SCEC  SADC
    20   -99 0.031 0.120  0.47  1.00  64.4  1.31  2.38   0.1   1.7   -99  0.03   4.2   -99   5.8   -99
    56   -99 0.034 0.135  0.43  0.47  71.0  1.40  0.12   3.2   0.2   -99  0.03   4.7   -99   0.1   -99
   102   -99 0.038 0.129  0.45  0.21  19.9  1.34  2.25   1.1   2.1   -99  0.03   4.1   -99  10.9   -99
   183   -99 0.031 0.120  0.35  0.06  22.2  1.64  2.31   0.5   1.0   -99  0.03   4.2   -99   9.2   -99
   203   -99 0.037 0.134  0.36  0.02  39.5  1.60  0.31   2.4   0.2   -99  0.03   4.5   -99   2.7   -99

*FL03719007  NRCS_UF    -99      203   SCRANTON FINE SAND
@SITE        COUNTRY          LAT     LONG SCS FAMILY
 Franklin    USA           29.948  -84.516 Generic
@ SCOM  SALB  SLU1  SLDR  SLRO  SLNF  SLPF  SMHB  SMPX  SMKE
   -99  0.13   -99  6.00    61  1.00  1.00   -99   -99   -99
@  SLB  SLMH  SLLL  SDUL  SSAT  SRGF  SSKS  SBDM  SLOC  SLCL  SLSI  SLCF  SLNI  SLHW  SLHB  SCEC  SADC
    18   -99 0.020 0.089  0.54  1.00  72.4  1.10  1.30   1.3   3.2   -99  0.03   4.0   -99   7.5   -99
    56   -99 0.034 0.109  0.39  0.48  25.3  1.52  0.63   1.7   2.2   -99  0.03   4.8   -99   4.0   -99
   117   -99 0.061 0.170  0.40  0.18  33.6  1.49  0.65   4.0   1.4   -99  0.03   4.9   -99   1.1   -99
   203   -99 0.039 0.088  0.34  0.04   7.7  1.67  0.46   7.1   0.6   -99  0.03   4.7   -99   1.6   -99

*FL12965007  NRCS_UF    -99      203   FOX WORTH
@SITE        COUNTRY          LAT     LONG SCS FAMILY
 Wakulla     USA           30.243  -84.192 Generic
@ SCOM  SALB  SLU1  SLDR  SLRO  SLNF  SLPF  SMHB  SMPX  SMKE
   -99  0.13   -99  4.00    64  1.00  1.00   -99   -99   -99
@  SLB  SLMH  SLLL  SDUL  SSAT  SRGF  SSKS  SBDM  SLOC  SLCL  SLSI  SLCF  SLNI  SLHW  SLHB  SCEC  SADC
    18   -99 0.089 0.230  0.43  1.00  14.6  1.41  0.99   1.3   2.5   -99  0.03   4.7   -99   4.5   -99
    58   -99 0.093 0.235  0.39  0.47  16.4  1.53  0.26   1.3   3.4   -99  0.03   4.9   -99   1.3   -99
    89   -99 0.093 0.235  0.41  0.23  23.7  1.47  0.13   1.3   2.6   -99  0.03   5.7   -99   0.9   -99
   135   -99 0.059 0.191  0.40  0.11  21.7  1.51  0.07   0.9   3.0   -99  0.03   5.6   -99   0.4   -99
   203   -99 0.140 0.270  0.40  0.03  19.7  1.51  0.06   0.8   2.3   -99  0.03   5.4   -99   0.5   -99

*FL12965010  NRCS_UF    -99      203   LAKELAND
@SITE        COUNTRY          LAT     LONG SCS FAMILY
 Wakulla     USA           30.255  -84.368 Generic
@ SCOM  SALB  SLU1  SLDR  SLRO  SLNF  SLPF  SMHB  SMPX  SMKE
   -99  0.13   -99  1.00    61  1.00  1.00   -99   -99   -99
@  SLB  SLMH  SLLL  SDUL  SSAT  SRGF  SSKS  SBDM  SLOC  SLCL  SLSI  SLCF  SLNI  SLHW  SLHB  SCEC  SADC
    20   -99 0.116 0.233  0.38  1.00  23.4  1.56  0.54   1.7   4.8   -99  0.03   4.8   -99   3.3   -99
   119   -99 0.048 0.139  0.37  0.25  32.3  1.58  0.18   1.3   4.5   -99  0.03   4.8   -99   1.2   -99
   150   -99 0.060 0.169  0.35  0.07  23.0  1.64  0.12   0.5   4.6   -99  0.03   4.9   -99   0.5   -99
   203   -99 0.092 0.232  0.33  0.03  21.7  1.71  0.04   0.4   3.3   -99  0.03   5.0   -99   0.2   -99

*FL07940003  NRCS_UF    -99      203   ALAGA LOAMY SAND
@SITE        COUNTRY          LAT     LONG SCS FAMILY
 Madison     USA           30.502  -83.294 Generic
@ SCOM  SALB  SLU1  SLDR  SLRO  SLNF  SLPF  SMHB  SMPX  SMKE
   -99  0.13   -99  3.00    61  1.00  1.00   -99   -99   -99
@  SLB  SLMH  SLLL  SDUL  SSAT  SRGF  SSKS  SBDM  SLOC  SLCL  SLSI  SLCF  SLNI  SLHW  SLHB  SCEC  SADC
    10   -99 0.093 0.234  0.50  1.00  10.3  1.22  2.18   7.5   6.2   -99  0.03   4.8   -99  14.9   -99
    23   -99 0.039 0.088  0.43  1.00  14.0  1.40  1.15   6.2   9.6   -99  0.03   5.1   -99  11.5   -99
    74   -99 0.100 0.241  0.45  0.38  18.3  1.34  0.71   7.3   8.2   -99  0.03   5.0   -99   8.1   -99
   147   -99 0.106 0.228  0.41  0.11  12.7  1.48  0.16   7.9   6.0   -99  0.03   5.0   -99   4.0   -99
   183   -99 0.194 0.301  0.36  0.04  14.1  1.61  0.09   4.6   2.4   -99  0.03   5.0   -99   1.6   -99
   203   -99 0.050 0.168  0.37  0.02  13.8  1.58  0.07   5.0   2.2   -99  0.03   4.9   -99   1.7   -99

*FL07940006  NRCS_UF    -99      203   LOVETT SAND
@SITE        COUNTRY          LAT     LONG SCS FAMILY
 Madison     USA           30.628  -83.421 Generic
@ SCOM  SALB  SLU1  SLDR  SLRO  SLNF  SLPF  SMHB  SMPX  SMKE
   -99  0.13   -99  4.00    64  1.00  1.00   -99   -99   -99
@  SLB  SLMH  SLLL  SDUL  SSAT  SRGF  SSKS  SBDM  SLOC  SLCL  SLSI  SLCF  SLNI  SLHW  SLHB  SCEC  SADC
    23   -99 0.037 0.124  0.34  1.00   4.2  1.68  0.78   3.6   5.3   -99  0.03   5.1   -99   4.9   -99
    58   -99 0.027 0.097  0.36  0.44  14.6  1.62  0.21   3.8   6.4   -99  0.03   5.1   -99   2.1   -99
    96   -99 0.030 0.105  0.36  0.21  19.3  1.60  0.11   5.0   6.8   -99  0.03   4.9   -99   2.1   -99
   119   -99 0.048 0.164  0.33  0.12   1.1  1.69  0.15  17.8   6.2   -99  0.03   4.7   -99   6.1   -99
   157   -99 0.061 0.168  0.40  0.06   0.8  1.50  0.15  37.6   5.8   -99  0.03   4.6   -99  10.4   -99
   203   -99 0.166 0.287  0.38  0.03   0.9  1.56  0.14  45.2   6.2   -99  0.03   4.3   -99   7.5   -99

*FL07940007  NRCS_UF    -99      203   LUCY SAND
@SITE        COUNTRY          LAT     LONG SCS FAMILY
 Madison     USA           30.506  -83.271 Generic
@ SCOM  SALB  SLU1  SLDR  SLRO  SLNF  SLPF  SMHB  SMPX  SMKE
   -99  0.13   -99  3.00    68  1.00  1.00   -99   -99   -99
@  SLB  SLMH  SLLL  SDUL  SSAT  SRGF  SSKS  SBDM  SLOC  SLCL  SLSI  SLCF  SLNI  SLHW  SLHB  SCEC  SADC
    28   -99 0.031 0.105  0.37  1.00  20.1  1.59  0.94   6.5   4.8   -99  0.03   5.2   -99   7.8   -99
    61   -99 0.019 0.089  0.36  0.41  11.9  1.61  0.22   8.5   7.5   -99  0.03   5.1   -99   6.1   -99
    86   -99 0.030 0.104  0.37  0.23   6.0  1.59  0.28  18.6   7.6   -99  0.03   5.1   -99   8.7   -99
   122   -99 0.029 0.101  0.34  0.12   1.4  1.68  0.06  22.6   4.8   -99  0.03   4.7   -99   9.4   -99
   162   -99 0.038 0.129  0.34  0.06   2.1  1.67  0.07  23.0   4.2   -99  0.03   4.5   -99   8.9   -99
   203   -99 0.043 0.156  0.36  0.03   1.9  1.60  0.08  31.0   3.4   -99  0.03   4.7   -99  10.4   -99

*FL07940009  NRCS_UF    -99      203   BLANTON SAND
@SITE        COUNTRY          LAT     LONG SCS FAMILY
 Madison     USA           30.529  -83.325 Generic
@ SCOM  SALB  SLU1  SLDR  SLRO  SLNF  SLPF  SMHB  SMPX  SMKE
   -99  0.13   -99  4.00    64  1.00  1.00   -99   -99   -99
@  SLB  SLMH  SLLL  SDUL  SSAT  SRGF  SSKS  SBDM  SLOC  SLCL  SLSI  SLCF  SLNI  SLHW  SLHB  SCEC  SADC
    20   -99 0.029 0.117  0.40  1.00  30.3  1.50  0.66   3.4   4.9   -99  0.03   5.3   -99   6.2   -99
    58   -99 0.019 0.089  0.35  0.46  21.1  1.63  0.31   3.8   6.4   -99  0.03   5.1   -99   5.2   -99
    86   -99 0.031 0.105  0.35  0.24  30.6  1.63  0.12   4.3   5.7   -99  0.03   4.5   -99   3.5   -99
   112   -99 0.094 0.236  0.36  0.14  21.4  1.62  0.02   4.4   7.2   -99  0.03   4.2   -99   4.1   -99
   157   -99 0.095 0.239  0.33  0.07   2.5  1.69  0.05  14.7   5.5   -99  0.03   4.3   -99   8.0   -99
   185   -99 0.098 0.242  0.32  0.03   5.4  1.73  0.01   9.9   4.7   -99  0.03   4.5   -99   6.0   -99